[TITLE]

[JUNCTIONS]
 J1                                   53.0767  ;				
 J10                                  60.5715  ;				
 J100                                 61.9886  ;				
 J101                                 62.4668  ;				
 J102                                 63.0318  ;				
 J103                                 61.9774  ;				
 J104                                 61.4794  ;				
 J105                                 61.1955  ;				
 J106                                 60.8158  ;				
 J107                                 60.1967  ;				
 J108                                 59.6556  ;				
 J109                                 58.9610  ;				
 J11                                  62.4225  ;				
 J110                                 55.0508  ;				
 J111                                 53.6446  ;				
 J112                                 61.0784  ;				
 J113                                 58.6478  ;				
 J114                                 57.4535  ;				
 J115                                 56.7682  ;				
 J116                                 56.3040  ;				
 J117                                 56.0541  ;				
 J118                                 55.7335  ;				
 J119                                 55.4023  ;				
 J12                                  63.5809  ;				
 J120                                 55.1379  ;				
 J121                                 56.2710  ;				
 J122                                 54.6366  ;				
 J13                                  64.6453  ;				
 J14                                  65.1901  ;				
 J15                                  65.5423  ;				
 J16                                  66.2318  ;				
 J17                                  67.5547  ;				
 J18                                  68.0788  ;				
 J19                                  67.8622  ;				
 J2                                   52.0377  ;				
 J20                                  66.9786  ;				
 J21                                  61.0386  ;				
 J22                                  62.8200  ;				
 J23                                  64.7574  ;				
 J24                                  68.7282  ;				
 J25                                  60.6019  ;				
 J26                                  64.8157  ;				
 J27                                  66.6025  ;				
 J28                                  67.8492  ;				
 J29                                  68.6643  ;				
 J3                                   55.6102  ;				
 J30                                  68.8734  ;				
 J31                                  68.9340  ;				
 J32                                  69.0830  ;				
 J33                                  69.5127  ;				
 J34                                  62.3459  ;				
 J35                                  65.9945  ;				
 J36                                  67.7957  ;				
 J37                                  69.5834  ;				
 J38                                  69.7686  ;				
 J39                                  69.9644  ;				
 J4                                   56.8623  ;				
 J40                                  70.1330  ;				
 J41                                  70.1757  ;				
 J42                                  69.9869  ;				
 J43                                  69.4341  ;				
 J44                                  68.4886  ;				
 J45                                  70.0633  ;				
 J46                                  69.9637  ;				
 J47                                  69.6947  ;				
 J48                                  66.4703  ;				
 J49                                  68.2047  ;				
 J5                                   57.5374  ;				
 J50                                  69.2477  ;				
 J51                                  69.8493  ;				
 J52                                  69.8818  ;				
 J53                                  69.7005  ;				
 J54                                  69.4012  ;				
 J55                                  68.7245  ;				
 J56                                  67.7127  ;				
 J57                                  68.5737  ;				
 J58                                  68.8854  ;				
 J59                                  68.1894  ;				
 J6                                   57.7147  ;				
 J60                                  66.9357  ;				
 J61                                  66.1259  ;				
 J62                                  64.8107  ;				
 J63                                  62.1927  ;				
 J64                                  60.5819  ;				
 J65                                  66.6625  ;				
 J66                                  67.3883  ;				
 J67                                  67.3627  ;				
 J68                                  65.5035  ;				
 J69                                  59.6753  ;				
 J7                                   57.6892  ;				
 J70                                  56.9089  ;				
 J71                                  66.5378  ;				
 J72                                  66.4866  ;				
 J73                                  64.6515  ;				
 J74                                  62.6107  ;				
 J75                                  59.7395  ;				
 J76                                  56.2463  ;				
 J77                                  64.8951  ;				
 J78                                  65.6269  ;				
 J79                                  65.7663  ;				
 J8                                   57.6966  ;				
 J80                                  64.0116  ;				
 J81                                  63.3850  ;				
 J82                                  60.8301  ;				
 J83                                  56.9505  ;				
 J84                                  55.7830  ;				
 J85                                  62.3005  ;				
 J86                                  59.9808  ;				
 J87                                  56.2926  ;				
 J88                                  63.9875  ;				
 J89                                  63.8805  ;				
 J9                                   58.6899  ;				
 J90                                  62.0599  ;				
 J91                                  61.4165  ;				
 J92                                  59.1041  ;				
 J93                                  55.7780  ;				
 J94                                  54.4736  ;				
 J95                                  60.4635  ;				
 J96                                  59.3322  ;				
 J97                                  58.1422  ;				
 J98                                  55.4588  ;				
 J99                                  61.0304  ;				

[RESERVOIRS]
 1                                    31.3360                                 ;					

[TANKS]

[PIPES]
 P17                             J9                              J10                                  78.6000     352.6000     140.0000       0.0000       
 P18                             J10                             J11                                 100.5300     440.6000     140.0000       0.0000       
 P19                             J11                             J12                                  85.3900     625.8000     140.0000       0.0000       
 P20                             J12                             J13                                 102.8900     123.4000     140.0000       0.0000       
 P21                             J13                             J14                                  56.8000     220.4000     140.0000       0.0000       
 P10                             J8                              J7                                   54.9100     352.6000     140.0000       0.0000       
 P14                             J14                             J6                                  314.0700     352.6000     140.0000       0.0000       
 P13                             J13                             J5                                  297.4100     352.6000     140.0000       0.0000       
 P7                              J5                              J4                                   99.4800     277.6000     140.0000       0.0000       
 P11                             J3                              J11                                 290.4100     123.4000     140.0000       0.0000       
 P12                             J12                             J4                                  284.6000     625.8000     140.0000       0.0000       
 P126                            J80                             J73                                  34.1200      96.8000     140.0000       0.0000       
 P108                            J64                             J69                                  53.2600     220.4000     140.0000       0.0000       
 P113                            J69                             J70                                  93.1700      96.8000     140.0000       0.0000       
 P118                            J70                             J76                                  46.2600      96.8000     140.0000       0.0000       
 P127                            J76                             J84                                  31.7500      96.8000     140.0000       0.0000       
 P146                            J84                             J94                                  98.1300      96.8000     140.0000       0.0000       
 P197                            J94                             J111                                161.2200      96.8000     140.0000       0.0000       
 P195                            J111                            J122                                287.4900      96.8000     140.0000       0.0000       
 P187                            J118                            J119                                 67.4100      96.8000     140.0000       0.0000       
 P188                            J119                            J120                                 67.6500      96.8000     140.0000       0.0000       
 P189                            J120                            J110                                 77.1100      96.8000     140.0000       0.0000       
 P190                            J110                            J98                                  79.6100      96.8000     140.0000       0.0000       
 P156                            J98                             J93                                  48.5400      96.8000     140.0000       0.0000       
 P145                            J93                             J87                                  46.7500      96.8000     140.0000       0.0000       
 P144                            J87                             J83                                  52.1300      96.8000     140.0000       0.0000       
 P131                            J81                             J80                                  38.2800      96.8000     140.0000       0.0000       
 P139                            J81                             J85                                  53.5200      96.8000     140.0000       0.0000       
 P167                            J95                             J109                                 61.8300      96.8000     140.0000       0.0000       
 P177                            J109                            J118                                118.7000      96.8000     140.0000       0.0000       
 P178                            J119                            J96                                 152.3100      96.8000     140.0000       0.0000       
 P179                            J120                            J97                                 117.3400      96.8000     140.0000       0.0000       
 P157                            J97                             J92                                  41.9100      96.8000     140.0000       0.0000       
 P142                            J92                             J86                                  40.3500      96.8000     140.0000       0.0000       
 P168                            J95                             J96                                  60.3600      96.8000     140.0000       0.0000       
 P169                            J96                             J97                                  55.9600      96.8000     140.0000       0.0000       
 P170                            J97                             J98                                 105.0600      96.8000     140.0000       0.0000       
 P154                            J92                             J93                                 128.6700      96.8000     140.0000       0.0000       
 P155                            J93                             J94                                  45.3100      96.8000     140.0000       0.0000       
 P196                            J110                            J111                                 38.1600      96.8000     140.0000       0.0000       
 P141                            J85                             J86                                 115.9900      96.8000     140.0000       0.0000       
 P143                            J86                             J87                                 144.4000      96.8000     140.0000       0.0000       
 P121                            J73                             J74                                 116.2200      96.8000     140.0000       0.0000       
 P105                            J61                             J62                                  81.8100     220.4000     140.0000       0.0000       
 P106                            J62                             J63                                 125.3800     220.4000     140.0000       0.0000       
 P107                            J63                             J64                                  63.9600     220.4000     140.0000       0.0000       
 P62                             J44                             J19                                 140.5600     277.6000     140.0000       0.0000       
 P26                             J19                             J18                                 107.1000     352.6000     140.0000       0.0000       
 P37                             J18                             J24                                  56.1600     277.6000     140.0000       0.0000       
 P36                             J24                             J33                                  90.6700     220.4000     140.0000       0.0000       
 P69                             J43                             J44                                  90.8900     220.4000     140.0000       0.0000       
 P25                             J17                             J18                                 109.8000     352.6000     140.0000       0.0000       
 P27                             J19                             J20                                  80.4000     277.6000     140.0000       0.0000       
 P147                            J99                             J100                                124.2800      96.8000     140.0000       0.0000       
 P191                            J100                            J121                                275.0600      96.8000     140.0000       0.0000       
 P150                            J89                             J102                                 96.0100      96.8000     140.0000       0.0000       
 P109                            J65                             J66                                 101.1400      96.8000     140.0000       0.0000       
 P115                            J66                             J71                                  51.1400     277.6000     140.0000       0.0000       
 P119                            J71                             J72                                 178.4400      96.8000     140.0000       0.0000       
 P110                            J66                             J67                                 182.9700      96.8000     140.0000       0.0000       
 P116                            J67                             J72                                  54.0100     220.4000     140.0000       0.0000       
 P111                            J67                             J68                                 179.6400      96.8000     140.0000       0.0000       
 P101                            J66                             J58                                 114.3500     277.6000     140.0000       0.0000       
 P97                             J58                             J59                                 194.0000      96.8000     140.0000       0.0000       
 P102                            J59                             J67                                  60.1200     277.6000     140.0000       0.0000       
 P98                             J59                             J60                                 182.6100     277.6000     140.0000       0.0000       
 P94                             J59                             J54                                 120.8500     277.6000     140.0000       0.0000       
 P95                             J60                             J56                                  85.1800     277.6000     140.0000       0.0000       
 P91                             J56                             J55                                  88.1700      96.8000     140.0000       0.0000       
 P90                             J54                             J55                                  91.5600     123.4000     140.0000       0.0000       
 P61                             J43                             J24                                 182.8600     220.4000     140.0000       0.0000       
 P8                              J5                              J6                                   55.0100     440.6000     140.0000       0.0000       
 P9                              J6                              J7                                   72.1200     352.6000     140.0000       0.0000       
 P166                            J108                            J109                                 41.0900      96.8000     140.0000       0.0000       
 P159                            J108                            J90                                 101.9000      96.8000     140.0000       0.0000       
 P152                            J90                             J91                                  39.6800      96.8000     140.0000       0.0000       
 P153                            J91                             J92                                 116.4600      96.8000     140.0000       0.0000       
 P158                            J95                             J91                                  41.5100      96.8000     140.0000       0.0000       
 P140                            J91                             J85                                  41.3800      96.8000     140.0000       0.0000       
 P151                            J89                             J90                                 179.7600      96.8000     140.0000       0.0000       
 P193                            J121                            J122                                172.9600      96.8000     140.0000       0.0000       
 P99                             J64                             J60                                 301.2800     220.4000     140.0000       0.0000       
 P117                            J73                             J68                                  51.7100      96.8000     140.0000       0.0000       
 P104                            J68                             J61                                  41.5800      96.8000     140.0000       0.0000       
 P103                            J61                             J60                                  62.9800     220.4000     140.0000       0.0000       
 P120                            J72                             J73                                 180.9700      96.8000     140.0000       0.0000       
 P82                             J55                             J43                                 177.2200     220.4000     140.0000       0.0000       
 P83                             J56                             J44                                 174.6100     277.6000     140.0000       0.0000       
 P68                             J42                             J43                                  86.9700     220.4000     140.0000       0.0000       
 P28                             J9                              J21                                 130.1800     277.6000     140.0000       0.0000       
 P6                              J9                              J3                                  408.0800     123.4000     140.0000       0.0000       
 P38                             J21                             J22                                  74.6400     277.6000     140.0000       0.0000       
 P41                             J22                             J26                                 149.2100     352.6000     140.0000       0.0000       
 P39                             J22                             J23                                 100.8900     277.6000     140.0000       0.0000       
 P40                             J21                             J25                                 220.3700     277.6000     140.0000       0.0000       
 P50                             J25                             J34                                 138.6900     277.6000     140.0000       0.0000       
 P43                             J25                             J26                                 171.6400     277.6000     140.0000       0.0000       
 P63                             J34                             J35                                 154.8400     277.6000     140.0000       0.0000       
 P51                             J26                             J35                                 142.8400     277.6000     140.0000       0.0000       
 P71                             J35                             J48                                 176.4500     277.6000     140.0000       0.0000       
 P64                             J35                             J36                                 103.2400     277.6000     140.0000       0.0000       
 P84                             J48                             J49                                 105.1200     277.6000     140.0000       0.0000       
 P70                             J34                             J48                                 303.2200     277.6000     140.0000       0.0000       
 P85                             J49                             J50                                  88.1500     440.6000     140.0000       0.0000       
 P46                             J29                             J30                                  47.2600     220.4000     140.0000       0.0000       
 P44                             J26                             J27                                 100.3000     277.6000     140.0000       0.0000       
 P86                             J50                             J51                                 104.0000     352.6000     140.0000       0.0000       
 P93                             J58                             J51                                 137.9800     277.6000     140.0000       0.0000       
 P73                             J51                             J39                                 112.6800     352.6000     140.0000       0.0000       
 P87                             J52                             J51                                  55.8500     277.6000     140.0000       0.0000       
 P88                             J52                             J53                                  73.1500     220.4000     140.0000       0.0000       
 P89                             J53                             J54                                  70.8300     220.4000     140.0000       0.0000       
 P75                             J52                             J45                                  46.0200     123.4000     140.0000       0.0000       
 P56                             J38                             J30                                 112.5200      96.8000     140.0000       0.0000       
 P67                             J41                             J42                                  71.8400     123.4000     140.0000       0.0000       
 P77                             J53                             J46                                  47.3500      96.8000     140.0000       0.0000       
 P76                             J46                             J41                                 124.3500      96.8000     140.0000       0.0000       
 P59                             J41                             J32                                 202.5800      96.8000     140.0000       0.0000       
 P35                             J32                             J17                                 155.3800     123.4000     140.0000       0.0000       
 P49                             J32                             J33                                  97.6100     123.4000     140.0000       0.0000       
 P60                             J33                             J42                                 129.8400     123.4000     140.0000       0.0000       
 P80                             J42                             J47                                 132.0400     123.4000     140.0000       0.0000       
 P81                             J47                             J54                                  46.9500     123.4000     140.0000       0.0000       
 P79                             J47                             J46                                  69.3500     123.4000     140.0000       0.0000       
 P78                             J46                             J45                                  73.1500      96.8000     140.0000       0.0000       
 P32                             J29                             J13                                 268.0200     352.6000     140.0000       0.0000       
 P33                             J14                             J30                                 252.0700     123.4000     140.0000       0.0000       
 P29                             J22                             J10                                 131.7400     352.6000     140.0000       0.0000       
 P72                             J49                             J36                                 149.9700     352.6000     140.0000       0.0000       
 P52                             J36                             J27                                 146.3500     352.6000     140.0000       0.0000       
 P42                             J27                             J23                                 142.3000     440.6000     140.0000       0.0000       
 P30                             J23                             J11                                 136.5400     440.6000     140.0000       0.0000       
 P53                             J50                             J28                                 295.5600     352.6000     140.0000       0.0000       
 P31                             J28                             J12                                 280.1800     352.6000     140.0000       0.0000       
 P180                            J101                            J112                                 61.2500      96.8000     140.0000       0.0000       
 P148                            J100                            J101                                 43.4200     123.4000     140.0000       0.0000       
 P149                            J101                            J102                                 54.1500      96.8000     140.0000       0.0000       
 P160                            J102                            J103                                 51.7500      96.8000     140.0000       0.0000       
 P163                            J105                            J106                                 57.1500      96.8000     140.0000       0.0000       
 P164                            J106                            J107                                 58.2300      96.8000     140.0000       0.0000       
 P165                            J107                            J108                                 38.9200      96.8000     140.0000       0.0000       
 P176                            J117                            J108                                131.2900      96.8000     140.0000       0.0000       
 P194                            J122                            J117                                 45.8500      96.8000     140.0000       0.0000       
 P186                            J117                            J118                                 42.8200      96.8000     140.0000       0.0000       
 P185                            J117                            J116                                 37.1300      96.8000     140.0000       0.0000       
 P184                            J116                            J115                                 58.3300      96.8000     140.0000       0.0000       
 P174                            J115                            J106                                143.0500      96.8000     140.0000       0.0000       
 P175                            J107                            J116                                139.3100      96.8000     140.0000       0.0000       
 P183                            J114                            J115                                 56.9600      96.8000     140.0000       0.0000       